<?xml version="1.0" encoding="UTF-8"?>

<!-- generated on 2024-07-27 12:55:33 by Eclipse SUMO netedit Version 1.19.0
-->

<routes xmlns:xsi="http://www.w3.org/2001/XMLSchema-instance" xsi:noNamespaceSchemaLocation="http://sumo.dlr.de/xsd/routes_file.xsd">
    <!-- Vehicles, persons and containers (sorted by depart) -->
    <vehicle id="0" depart="0.00" departLane="best" departPos="random" departSpeed="max">
        <route edges="192311532#1 192311532#2 192311532#3 192311532#4 192311532#5 192311532#6 192311532#7 192311532#8 192311532#9 192311532#10 191824790#1 191824790#2 191824790#3 191824790#4 191824790#6 1032772683 191817486#0 191817486#1 191817486#2 191817486#3 191817486#4 191817486#5 191617846#1 191617837#0 191617837#1 191617837#2 191617837#3 191617837#4 191617837#6 191617837#7 191617837#9 191617837#10 191617837#11 191617838#1 191617838#2 191617838#3 191617838#4 -191617852#2 -191617852#1 -191617852#0 191617844#2 191617844#3 191617844#4 191618058#0 191618058#1 191495030#4 191494981#0 191494981#1 191494981#2 191495037#0 191495037#1 191495037#2 191495037#3 191495037#4 191495037#5 191495037#7 191495037#9 191495037#10 -191500117#6 -191500117#4 -191500117#3 -191500004"/>
    </vehicle>
    <vehicle id="1" depart="0.12" departLane="best" departPos="random" departSpeed="max">
        <route edges="-552373923#6 -552373923#5 -552373923#4 -552373923#3 -552373923#2 -552373923#0 1285151829#3 1285151829#4 1285151829#6 1285151829#7 1285151829#8 1285151829#9 1285151829#10 1285151829#11 909496520#1 909496520#2 909496520#3 909496520#4 909496520#5 909496520#6 909496520#7 909496520#8 909496520#9 909496520#10 909496520#11 909496520#13 909496520#14 192422291#1 192422291#2 845280329#0 845280329#1 845280329#2 845280329#3 845280329#4 845280329#5 845280329#6 845280329#7 845280329#8 845280329#9 845280329#10 1236285636#0 1236285636#1 1236285636#2 1236285636#3 1236285636#4 191943334#0 191943334#1 191943334#2 191943334#3 191943334#4 191943334#5 191943334#6 191943334#7 191943334#8 191943334#9 191943334#10 191943334#11 191943334#12 191943334#13 191943334#14 191943593#1 191943454#3 191943454#4 191943483#0 191943483#1 191943483#2 191943483#3 191943483#4 191943483#5 191943483#7 191943483#8 191943483#9 191943483#10 191943483#11 191943483#12 191943483#13 191943483#14 191943483#15 191943483#16 -191953150#17 370134726#0 370134726#2 370134726#3 370134726#4 191953198#0 191953198#1 191953198#2 191953198#3 191943544#1 191943544#2 369864122#0 369864122#1 -369864180#1 -369864180#0"/>
    </vehicle>
    <vehicle id="2" depart="0.24" departLane="best" departPos="random" departSpeed="max">
        <route edges="369980466#6 369844141#0 369844141#1 369844141#2 704477363#9 704477363#10 704477363#11 704477363#12 704477363#13 704477363#14 704477362#0 704477362#2 -369980619 726108715 1074170452#0 1074170452#2 1073817574 369980465#0 369980465#1 369980465#3 369980465#4 369980465#5 369980465#6 369980465#7 -369835597#0 -370134726#3 -370134726#2 -370134726#0 -191953150#16 -191953150#14 -191953150#13 -191953150#12 -191953150#11 -191953150#9 -191953150#8 -191953150#7 -191953150#6 -191953150#5 -191953150#4 -191953150#3 -191953150#0 -1033376988#17 -1033376988#16 -1033376988#15 -1033376988#13 -1033376988#12 -1033376988#11 -1033376988#10 -1033376988#8 -1033376988#7 -1033376988#6 -1033376988#5 -1033376988#4 -1033376988#3 -1033376988#2 -1033376988#1 -1033376988#0 191943397#3 191943397#4 191943465#0 191943465#1 191943465#2 191943465#3 191943465#4 191943465#5 191943465#6 191943465#7 191943465#8 191943465#9 191943465#10 191943465#11 191943465#12 191943465#13 191943465#14 191943465#15 191943465#16 191943465#17 191943309 191817169 1069137390 191817170 191817153#5 191817153#6 191817173#0 191817173#1 191817173#2 191817173#4 191817173#5 191817173#6 191817173#7 191817173#8 191817173#9 191817173#10 191817173#11 191817173#12 191817173#13 191817173#14 191817173#15 191817173#16 191817364#2 191817167#0 191817167#1 1026798105 1027007808 1026798106 191774912#2 191774912#3 191774912#4 191774912#5 191774912#6 191774912#7 1033772444 191774907#2 191774907#3 191774907#4 191774907#5 191774907#6 903287272#0 903287272#1 903287272#2 903287272#3 903287272#5 903287272#6 903287272#7 903287272#8 903287272#10 903287272#11 1026013588#0 1026013588#1 1026013588#2 749308480 321632875#0 321632875#2 321632875#4 321632875#5 321632875#6 321632875#7 321632875#8 321632875#9 321632875#10 321632875#11 321632875#12 321632875#14 321632875#15 321632875#16 321632875#17 321632875#18 321632875#21 321632875#22 321632875#23 321632875#24 321632875#25 321632875#26 321632875#27 321632875#28 321632875#30 321632875#31 321632875#32 321632875#33 321632875#34 321632875#35 321632875#36 321632875#38 321632875#39 321632875#40 321632875#41 321632875#43 321632875#44 321632875#46 321632875#47 321632875#48 321632875#49 321632875#50 321632875#51 322645080#0 322645080#2 322645080#3 322645080#4 322645080#5 322645080#6 322645082#0 322645083"/>
    </vehicle>
    <vehicle id="3" depart="0.36" departLane="best" departPos="random" departSpeed="max">
        <route edges="721502482 -721502482 721502493#2 698698687#0 698698687#1 698698687#2 698698687#3 -582798371#28 -582798371#27 -582798371#26 -582798371#25 -582798371#23 -582798371#22 -582798371#21 -582798371#19 -582798371#18 -582798371#17 582879037#0 582879037#1 582879037#2 582879037#3 -552373923#9 -552373923#7 -552373923#6 -552373923#5 -552373923#4 -552373923#3 -552373923#2 -552373923#0 1285151829#3 1285151829#4 1285151829#6 1285151829#7 1285151829#8 1285151829#9 1285151829#10 1285151829#11 909496520#1 909496520#2 909496520#3 909496520#4 909496520#5 909496520#6 909496520#7 909496520#8 909496520#9 909496520#10 909496520#11 909496520#13 909496520#14 192422291#1 192422291#2 191972181#4 476026221#0 476026221#1 476026221#2 476026221#3 476026221#4 191978376#1 369953557#4 -191978432#1 191978413 -191978413"/>
    </vehicle>
    <vehicle id="4" depart="0.48" departLane="best" departPos="random" departSpeed="max">
        <route edges="-907973029#2 -907973029#1 -907973029#0 -907973026#1 -907973026#0 907973025 -696401649#1 -696401648 583123265#11 -191828833#16 -191828833#15 -191828833#14 -191828833#13 -191828833#11 -191828833#10 -191828833#9 -191828833#8 -191828833#7 -191828833#6 -191828833#5 -191828833#4 -191828833#3 -191828833#2 -191828833#1 -191828833#0 1031077769 1031077771 -583119341#19 -583119341#18 -583119341#17 -583119341#16 -583119341#15 -583119341#14 -583119341#13 -583119341#12 -583119341#11 -583119341#9 -583119341#8 -583119341#7 -583119341#5 -583119341#4 -583119341#3 -583119341#2 -583119341#1 -583119341#0 -736476038#6 -736476038#5 -736476038#4 -736476038#3 -736476038#1 -736476038#0 -744241152#16 -744241152#15 -744241152#13 -744241152#12 -744241152#10 -744241152#8 -744241152#7 -744241152#6 -744241152#5 -744241152#3 -744241152#2 -744241152#1 697677877#41 191775185 1027005607#1 1027005607#2 1027005616#0 1027005616#1 1027005616#2 1027005616#3 1027005616#4 747481837 1264456590#1 903235307#1 1026013588#6 1026013588#7 1026013588#0 191774924#0 191774924#1 191774924#2 191774924#3-AddedOnRampEdge 191774924#3 191774924#5 191774924#6 191774924#7 191774924#8 191774924#9 191774924#10 191495002#1 191495002#2 191495002#3 191495002#4 191495002#5 191495002#6 191495034#1 191495034#2 191495034#3 191495034#4 191495034#5 191495034#6 191494999#0 191494999#1 191494999#2 191494999#3 191494999#4 191495030#2 191495030#3 191495030#4 191494981#0 191494981#1 191494981#2 191494981#3 191494981#5 191494981#6 191499992#1 191495033#1 191495033#2 191495033#3 191495033#4 -191606226#5"/>
    </vehicle>
    <vehicle id="5" depart="0.60" departLane="best" departPos="random" departSpeed="max">
        <route edges="-369852220#0 370132520#1 370132520#2 369980591#1 -369852169#1 -369852169#0 704477363#10 704477363#11 704477363#12 704477363#13 704477363#14 704477362#0 704477362#2 -369980619 726108715 1074170452#0 1074170452#2 1073817574 369980465#0 369980465#1 369980465#3 369980465#4 369980465#5 369980465#6 369980465#7 191953198#0 191953198#1 191953198#2 191953198#3 191943544#1 191943544#2 191943544#3 370141340#1 370141340#2 370141340#3 370141340#4 370141340#5 370141340#6 370141340#7 370141340#8 370141340#9 370141340#10 370141340#11 191953140#0 191953140#1 191953105#2 191953053#0 191953053#1 191953053#2 191824801#1 191824801#2 191824795#0 191824795#2 191824795#3 191824795#5 910739716#0 910739716#1 910739716#2 910739716#3 192305289#1 191621599 191621548#4 191621548#5 191621574#0 191621574#1 191621546#3 191621546#4 191621546#5 191621546#6 1293037085#0 1293037085#1 910695976#1 910695976#2 -191621541#9 -191621541#8 -191621541#6 -191621541#5 -191621541#4 -191621541#3 -191621541#2 -191621541#1 191617826#18 191608907#1 191608907#2 191608907#3 191608907#4 191608907#5 191608907#6 191608907#7 191608907#8 191608907#9 191608907#10 191495010#15"/>
    </vehicle>
    <vehicle id="6" depart="0.72" departLane="best" departPos="random" departSpeed="max">
        <route edges="-191500081#0 191500120#2 191500120#3 191500120#4 191500120#5 191500120#6 191500120#7 -191495011#4 -191495011#3 -191495011#2 -191495011#1 -191495011#0 -191500104#0 191495030#8 191495030#1 191495030#2 191618083#0 191618083#1 191618083#2 191618083#3 191617844#6 191617844#7 191617844#1 191617852#0 191617852#1 191617852#2 191617818#4 191617818#5 191617818#6 191617811#1 191617811#3 191617811#5 191617811#6 191617811#7 191617811#8 191617811#9 191617811#10 191617811#11 191617846#3 910765600#0 910765600#1 910765600#2 910765600#3 910765600#4 910765600#5 910765600#6 910765600#7 910765600#8 910765600#9 910765600#10 910765600#11 910765598 910765599 1032772685#1 191817516#2 191817516#3 191817516#4 191817516#5 191817516#6 191817360 191817193#1 749320111#0 749320111#1 749320114 191953053#9 191953053#11 191953053#12 191953053#13 191953053#14 191953052#6 191953052#1 191953052#2 191953042#0 191953042#1 191953042#2 191953042#3 191953065 1033376988#1 1033376988#2 1033376988#3 1033376988#4 1033376988#5 1033376988#6 1033376988#7 1033376988#8 1033376988#10 1033376988#11 1033376988#12 1033376988#13 1033376988#15 1033376988#16 1033376988#17 191953150#0 191953150#3 191953150#4 191953150#5 191953150#6 -369999895#1 -369999895#0 370008832#0 370008832#1 370008832#2 191943614#0 191943614#1 191943614#3 191943614#4 191943614#5 191943614#6 191943614#7 -912624076#4 -912624076#2 -912624076#1 -191943436#7 -191943436#6 -191943436#5 -191943436#4 -191943436#3 -191943436#2 -191943436#1 191943431#0 191943431#2 191943431#3 191943431#5 191943431#6 191943431#7 191943431#8 1026727233#9 1026727233#10 1026727233#1 1026727233#2 1026727233#3 699362311#0 699362311#1 699362311#2 699362311#3 699362311#4 699362311#5 699362311#6 699362311#7 699362311#8 699362311#9 699362311#10 699362311#11 699362311#12 699362311#13 699362311#14 699362311#15 699362311#16 699362311#17 699362311#18 191972181#2 191972181#3 845280329#0 845280329#1 845280329#2 845280329#3 845280329#4 845280329#5 845280329#6 845280329#7 845280329#8 845280329#9 749326655#0 749326655#1 749326655#2 749326655#4 369696279#1 -369696279#1"/>
    </vehicle>
    <vehicle id="7" depart="0.84" departLane="best" departPos="random" departSpeed="max">
        <route edges="192421972#8 -192421976#5 699375946 191972265#2 191972265#3 191972265#4 191972265#5 191972265#6 191972181#3 191972181#4 476026221#0 476026221#1 476026221#2 476026221#3 476026221#4 476026221#5 476026221#6 476026221#7 476026221#8 476026221#9 476026221#10 476026221#11 476026221#12 476026221#13 476026221#14 476026221#15 476026221#16 476026221#17 476026221#18 476026221#19 476026221#20 1026727233#5 1026727233#6 1026727233#7 1026727233#8 1026727233#9 1026727228 1026727226#0 1026727226#1 1026727226#2 191943311#0 191943311#1 191943319#1 191943319#2 191943319#3 191943319#4 191943319#5 700051245#3 700051245#4 700051245#5 191943353#0 1026724588#1 191943324#1 191943324#2 191943324#3 191943324#4 191943324#5 191943637#0 191943637#1 191943637#2 191943637#3 191943637#4 -704298674 -191943520#0 -704298675#9 -704298675#8 -704298675#7 -704298675#5 -704298675#4 -704298675#3 -704298675#2 -704298675#1 -704298675#0 908611804 191817368#5 191817150#0 191817150#1 -993870148#3 -993870148#1 -993870148#0 993870149#0 993870149#1 993870149#2 993870149#3 993870149#4 642577673#0 642577673#1 642577673#2 642577673#3 191775036#6 191775036#7 191775036#8 191775036#9 191775036#10 191775036#11 191774938#0 191774938#1 191774938#2 642579430#1 1032835413#0 1032835413#1 1032835413#2 1032835413#3 1032835413#4 642579425#1 642579425#2 642579425#3 747208149#1 1031358312 1031358310#1 -191800490#3 -191800490#2 748321076 191800486#0 191800447#0 191800447#1 191800447#2 191800447#3 191800447#4"/>
    </vehicle>
    <vehicle id="8" depart="0.96" departLane="best" departPos="random" departSpeed="max">
        <route edges="-369856671#2 -369856671#1 -369856671#0 -370042285#1 -369856653#8 -369856653#6 -369856653#4 -369856653#3 -369856653#2 -369856653#1 903236081#14 191943266#1 191943266#2 191943266#3 191943266#5 191943266#6 191943266#7 191943266#8 191943266#9 191943266#10 191943266#11 191943266#12 191943266#13 191943266#14 191943266#15 191943266#16 191943266#17 191943266#18 191943266#20 191943266#21 191943266#22 191943266#23 910868861#0 910868861#1 910868861#1-AddedOffRampEdge 910868861#2 370134725#8 370134725#9 370134725#10 370134725#11 370134725#12 370134725#13 191943454#6 191943454#7 191943454#1 191943631#0 191943631#0-AddedOffRampEdge 912624077 191943334#17 191943334#18 191943332#1 191943332#2 191943332#3 191943332#4 191943332#5 191943332#6 191943332#7 1026727233#7 1026727233#8 1026727233#9 1026727233#10 1026727233#1 1026727233#2 1026727233#3 699362311#0 699362311#1 699362311#2 699362311#3 699362311#4 699362311#5 699362311#6 699362311#7 699362311#8 699362311#9 699362311#10 699362311#11 699362311#12 699362311#13 699362311#14 699362311#15 -191978468#2 -191978468#1 -191978468#0 -191978510#2 191978458#0"/>
    </vehicle>
    <vehicle id="9" depart="1.08" departLane="best" departPos="random" departSpeed="max">
        <route edges="626389020 626389024#1 626389024#2 626389024#3 -626389023#4 -626389023#3 -626389023#2 -626389023#1 -626389023#0 626389024#13 643077044#1 643077044#2 643077044#3 643077044#4 643077044#5 643077044#6 643077044#7 643077044#8 643077044#9 643077044#10 -1152832564 191828877#1 1026011609#3 1026011609#4 191828828#0 191828828#1 191828828#2 191828828#3 191828828#4 191828828#4-AddedOffRampEdge 598631676#0 598631676#1 598631676#2 1265037904 910730225#0 910730225#1 910730226#1 910730226#2 910730226#3 191828869#0 191828869#2 191828869#3 191828869#4 191828869#5 191828869#6 191828869#7 191828869#8 191828869#10 191828869#11 191828869#12 191828869#13 191828869#14 191828869#16 191828869#17 191828869#18 191828869#19 -1031077766 1264465907 191828833#0 191828833#1 191828833#2 191828833#3 191828833#4 191828833#5 -697969841 727636084#10 727636084#11 727636084#12 727636084#13 727636084#14 582798374#1 582798374#2 582798374#3 582798374#4 582798374#5 582798374#6 582798374#7 582798374#8 1257804733 1257804735 1136885970 -1136885970"/>
    </vehicle>
    <vehicle id="10" depart="1.20" departLane="best" departPos="random" departSpeed="max">
        <route edges="583134945#7 -583134945#7 -583134945#6 -583134945#5 -583134945#4 -583134945#3 -583134945#2 -469064364#14 -469064364#13 -469064364#12 -469064364#11 -469064364#10 -469064364#9 -469064364#7 -469064364#6 -469064364#5 -469064364#3 -469064364#2 -469064364#0 909496520#3 909496520#4 909496520#5 909496520#6 909496520#7 909496520#8 909496520#9 909496520#10 909496520#11 909496520#13 909496520#14 192422291#1 192422291#2 845280329#0 845280329#1 845280329#2 845280329#3 845280329#4 845280329#5 845280329#6 845280329#7 845280329#8 845280329#9 845280329#10 1236285636#0 1236285636#1 1236285636#2 1236285636#3 1236285636#4 191943334#0 191943334#1 191943334#2 191943334#3 191943334#4 191943334#5 191943334#6 191943334#7 191943334#8 191943334#9 191943334#10 191943334#11 191943334#12 191943334#13 191943334#14 191943593#1 191943454#3 191943454#4 191943483#0 191943483#1 191943483#2 191943483#3 191943483#4 191943483#5 191943483#7 191943483#8 191943483#9 191943483#10 191943483#11 191943483#12 191943483#13 191943483#14 191943483#15 191943483#16 -191953150#17 370134726#0 370134726#2 370134726#3 370134726#4 191953198#0 191953198#1 191953198#2 191953198#3 191943544#1 191943544#2 191943544#3 903332566 191953031#0 369662510#0 369662510#2 369662510#3 -369662516 369662516"/>
    </vehicle>
    <vehicle id="11" depart="1.32" departLane="best" departPos="random" departSpeed="max">
        <route edges="-698578754 -698578763#3 -698578763#2 -698578763#1 -909955138 -698578785#7 -698578785#6 -698578785#5 -698578785#4 -698578785#3 -698578785#2 -698578785#1 -698578785#0 191972131#1 191972131#2 191972131#3 191972131#4 191972131#5 191972185#2 191972185#3 191972185#4 191972185#5 191972130 699614229#0 699614229#1 699614229#2 699614229#3 699614229#4 699614229#5 699614229#6 699614229#8 699614229#9 699614229#10 699614229#11 699614229#12 -191972950#7 -191972950#6 -191972950#4 -191972950#3 -191972950#2 -191972950#1 912775055#6 912775055#7 -192434537#7 -192434539#6 -192434571 -192434656#4"/>
    </vehicle>
    <vehicle id="12" depart="1.44" departLane="best" departPos="random" departSpeed="max">
        <route edges="908645087#1 -908645087#1 -908645087#0 -191985664#0 191972102#1 191972110#1 191972110#2 191972110#3 191972110#4 191972108#0 191972108#1 191972144#9 191972144#10 191972144#1 191972144#2 191972144#3 191972189#0 191972189#1-AddedOnRampEdge 191972189#1 191972148#3 191972215#0 191972215#1 191972215#2 191972215#3 191972215#4 191972215#5 191972215#6 191972215#7 191972215#8 191972215#8-AddedOffRampEdge 191972215#9 1025856707#0 642870580#0 642870580#1-AddedOnRampEdge 642870580#1 642870630#1 642870630#2 1015410193#0 1015410193#2 642870593#14 642870593#1 642870593#2 642870591#0 642870591#1 642870591#2 642870591#3 642870591#4 642870591#5 642870607#7 642870607#8 642870607#9 642870602 191817139#1 642870596#1 642870596#2 642870596#3 642577673#0 642577673#1 642577673#2 642577673#3 191775036#6 191775036#7 191775036#8 191774904#0 191774904#1 191774904#2-AddedOnRampEdge 191774904#2 191774904#3 191774904#4 191774904#5 642568410#0 642568410#0-AddedOffRampEdge 642568410#1 642568411#0 642568411#1-AddedOnRampEdge 642568411#1 642568411#2 642568411#3 191774923#3 1026798105 1027007808 1026798106 191774912#2 191774912#3 191774912#4 191774912#5 191774912#6 191774912#7 1033772444 191774907#2 191774907#3 191774907#4 191774907#5 191774907#6 903287272#0 903287272#1 903287272#2 903287272#3 903287272#5 903287272#6 903287272#7 903287272#8 903287272#10 903287272#11 1026013588#0 1026013588#1 1026013588#2 749308480 321632875#0 321632875#2 321632875#4 321632875#5 321632875#6 321632875#7 321632875#8 321632875#9 321632875#10 321632875#11 321632875#12 321632875#14 321632875#15 321632875#16 321632875#17 321632875#18 322290290 909000240 -909000241#1 -909000241#0 -322657526#9 -322657526#8 -322657526#7 -322657526#6 -322657526#4 -322657526#3 -322657526#2 -322657526#1 -322657526#0 322657525#0 322657525#2 322657525#3 322657525#4 322657525#5 -697959951#2 -697959951#1"/>
    </vehicle>
    <vehicle id="13" depart="1.56" departLane="best" departPos="random" departSpeed="max">
        <route edges="-191982482#0 191982482#0 191982482#1 191982529#4 910322817#0 910322815#1 910322815#2 910322815#3 910322815#4 910322815#5 910322814#1 749318756#1 749318756#2 749318756#3 749318756#4 -191972955#5 -191972955#4 -191972955#3 -191972955#2 191982467#0 191982467#1 191985667#0 191985667#1 191985667#2 191985667#3 191985711#0 -191985711#0"/>
    </vehicle>
    <vehicle id="14" depart="1.68" departLane="best" departPos="random" departSpeed="max">
        <route edges="697711986#2 -582768577#8 -582768577#7 -582768577#6 -582768576#6 -582768576#5 -582768576#4 654417028#3 654417028#4 747170927 191774927#0 191774927#1 191774927#1-AddedOffRampEdge 747170926 1265037914#0 1265037914#1 1026012565 191774943#0 191774943#1 191774943#2 191774943#3 1032835414#0 1032835414#1 1032835414#2 1032835414#3 1032835414#4 642579430#3 642579422#0 642579422#1 191775036#1 191775036#2 191775036#3 191800324 191800321#1 191800321#2 191800321#3 642577672#1 642577672#2 642577672#3 191817140 191972222#0 191972222#1 191972222#2 191972222#3 191972222#4 642870593#5 642870593#6 642870593#7 642870593#8 642870593#9 642870593#10 642870589#0 642870589#1 642870589#2 642870589#3 642870589#4 642870589#5 642870589#6 642870618#1 642870618#2 1025856707#3 1025856707#4 1025856707#5 1025856707#7 642870579#0 642870579#1 642870579#2 642870579#4 642870579#5 1026721421 -191992321#2 -191992321#1 -191992321#0 1031305686#0 1031305686#1 191992192#0 191992192#1 191992192#2 191992192#3 191992192#4 191992192#5 191992192#6 -191992279#2 191992300#0"/>
    </vehicle>
    <vehicle id="15" depart="1.80" departLane="best" departPos="random" departSpeed="max">
        <route edges="583152044#6 583152044#7 583152044#8 583152044#9 583152044#10 583152044#11 -469051005#5 -469051005#4 469051004#2 909496520#7 909496520#8 909496520#9 909496520#10 909496520#11 909496520#13 909496520#14 192422291#1 192422291#2 845280329#0 845280329#1 845280329#2 845280329#3 845280329#4 845280329#5 845280329#6 845280329#7 845280329#8 845280329#9 845280329#10 1236285636#0 1236285636#1 1236285636#2 1236285636#3 1236285636#4 191943334#0 191943334#1 191943334#2 191943334#3 191943334#4 191943334#5 191943334#6 191943334#7 191943334#8 191943334#9 191943334#10 191943334#11 191943334#12 191943334#13 191943334#14 191943593#1 191943454#3 191943454#4 191943483#0 191943483#1 191943483#2 191943483#3 191943483#4 191943483#5 191943483#7 191943483#8 191943483#9 191943483#10 191943483#11 191943483#12 362219232#1 362219232#2 369837234#1 369837234#2 369837234#3 369837234#4 369837234#5 369837234#7 369864096#0 369864096#1 369864096#2 369864096#3 369864096#4 369864096#5 369864096#6 369864096#7 370021427#0 369864126 -370021425#2 369980613#0 369980613#1 369980613#2 369980593#0 369980593#1 369864163#1"/>
    </vehicle>
    <vehicle id="16" depart="1.92" departLane="best" departPos="random" departSpeed="max">
        <route edges="191775228#4 -191775228#4 -191775228#3 -191775228#2 191775123#0 191775123#1 191775123#2 191775214#1 191775214#2 191775214#3 191775214#4 191775214#5 191775214#6 191775106#4 191775106#5 191775106#6 191775106#7 191775106#8 191775106#9 191775106#11 191775106#12 191775106#13 191775106#14 191775106#15 -747208148 -1031358314 191774943#2 -908963770 -191800388#9 -191800388#8 -191800388#7 -191800388#6 -191800388#5 -191800388#4 -191800388#3 -191800388#2 -191800388#1 -191800388#0 -1031305687#4 -1031305687#2 -1031305687#1 -1031305687#0 191800396#6 191800396#1 909542715#0 909542715#1 909542716#1 909542716#2 909542716#3 701942602#0 701942602#1 -701942610#7 701942609#0 701942609#2 -701946131#2 -701946131#0 -701946132 582768581#3 582768581#4 -909526896 909526896"/>
    </vehicle>
    <vehicle id="17" depart="2.04" departLane="best" departPos="random" departSpeed="max">
        <route edges="-721876954#0 721859287#1 721859287#2 721859287#3 1263978059#1 -552373925#13 -552373925#12 -552373925#11 -552373925#8 583152007#0 583152007#1 583152007#2 583152008#3 583152032#0 583152032#1 583152032#2 583152032#3 583152032#4 -370016103#1 -370016103#0 469051000 -469050998#6 -469050998#5 -469050998#4 -469050998#3 -469050998#2 -469050998#1 909496520#11 909496520#13 909496520#14 192422291#1 192422291#2 191972181#4 476026221#0 476026221#1 476026221#2 476026221#3 476026221#4 476026221#5 476026221#6 476026221#7 476026221#8 476026221#9 476026221#10 476026221#11 476026221#12 476026221#13 476026221#14 476026221#15 476026221#16 476026221#17 476026221#18 476026221#19 476026221#20 1026727233#5 1026727233#6 1026727233#7 1026727233#8 1026727233#9 1026727228 1026727226#0 1026727226#1 1026727226#2 191943311#0 191943311#1 191943319#1 191943319#2 191943319#3 191943319#4 191943319#5 700051245#3 700051245#4 700051245#5 191943353#0 1026724588#1 191943324#1 191943324#2 191943324#3 191943324#4 191943324#5 191943637#0 191943637#1 191943637#2 191943637#3 191943637#4 191943637#5 191943637#6 -701777798#1 -701777798#0 192437255#0 192437255#1 192437255#3 192437255#4 -191943622#3 -191943622#2 -191943622#1 -191943622#0 1264487119 1264487120 1032836880#0 191817427#0 1033380921 191817501#0"/>
    </vehicle>
    <vehicle id="18" depart="2.16" departLane="best" departPos="random" departSpeed="max">
        <route edges="696116140#1 696116139#3 696116139#4 582798393#8 582798393#9 582798393#10 582798393#11 582798393#12 695979038#0 695979038#1 -728420650#2 -728420650#1 -728420650#0 -728420651 191828837#18 191828837#19 191828837#21 910730226#5 910730226#6 910730226#7 910730224#0 910730224#1 910730224#2 910730224#3 1026012565 191774943#0 191774943#1 191774943#2 191774943#3 1032835414#0 1032835414#1 1032835414#2 1032835414#3 1032835414#4 642579430#3 642579422#0 642579422#1 191775036#1 191775036#2 191775036#3 191775036#4 191775036#5 191775036#6 191800346 191800356#0 191800356#1 191800356#2 191800342#0 191800342#1 191800342#2 191800342#4 191817517#0 1033380924#0 1033380924#1 191817494#0 191817494#1 -1033380921 -191817427#0 -1032836880#0 1119532847 191943622#0 191943622#1 191943622#2 191943622#3 191943622#5 191943622#7 191943622#9 191943622#10 191943622#11 191943622#12 191943622#14 -191943634#3 -191943634#2 191943450#0 191943450#1 191943450#2 191943450#3 191943450#4 1033376989#0 1033376989#1 1033376989#2 192150119#0 369681897 192149989#1 192149989#2 192149989#3 912238999 -700051247 192150045#1 192150015"/>
    </vehicle>
    <vehicle id="19" depart="2.28" departLane="best" departPos="random" departSpeed="max">
        <route edges="699614229#19 699614229#20 699614229#21 699614229#22 1026727233#3 1026727233#4 1026727233#5 1026727233#6 1026727233#7 1026727233#8 1026727233#9 1026727228 1026727226#0 1026727226#1 1026727226#2 191943311#0 191943311#1 191943319#1 191943319#2 191943319#3 191943319#4 191943319#5 700051245#3 700051245#4 700051245#5 191943353#0 1026724588#1 191943324#1 191943324#2 191943324#3 191943324#4 191943324#5 1026722276 191943360#0 191943360#1 191955306#0 191955306#1 191955306#2 191955306#3 191955306#4 191955306#5 191955306#6 191955306#7 -191955309#5 191955366#0 191955366#1 191955366#3 -191955331 191955367#0 191955367#1"/>
    </vehicle>
    <vehicle id="20" depart="2.40" departLane="best" departPos="random" departSpeed="max">
        <route edges="369696259 369696329#2 369696329#3 369985754#2 369985754#3 369985754#4 369985754#5 369697689#0 369697689#1 369697689#2 369697689#3 369697689#4 -369786736#8 -369786736#7 -369786736#6 369994544#0 369994501#0 369994501#1 191943334#10 191943334#11 191943334#12 191943334#13 191943334#14 191943593#1 191943454#3 191943454#4 191943483#0 191943483#1 191943483#2 191943483#3 191943483#4 191943483#5 191943483#7 191943483#8 191943483#9 191943483#10 191943483#11 191943483#12 191943483#13 191943483#14 191943483#15 191943483#16 -191953150#17 -191953150#16 -191953150#14 -191953150#13 -191953150#12 -191953150#11 -191953150#9 -191953150#8 -191953150#7 -191953150#6 -191953150#5 -191953150#4 -191953150#3 -191953150#0 -1033376988#17 -1033376988#16 -1033376988#15 -1033376988#13 -1033376988#12 -1033376988#11 -1033376988#10 -1033376988#8 -1033376988#7 -1033376988#6 -1033376988#5 -1033376988#4 -1033376988#3 -1033376988#2 -1033376988#1 -1033376988#0 191943397#3 191943397#4 191943465#0 191943465#1 191943465#2 191943465#3 191943465#4 191943465#5 191943465#6 191943465#7 191943465#8 191943465#9 191943465#10 191943465#11 191943465#12 191943465#13 191943465#14 191943465#15 191943465#16 191943465#17 191943309 191817169 1069137390 191817170 191817153#5 191817153#6 191817173#0 191817173#1 191817173#2 191817173#4 191817173#5 191817173#6 191817173#7 191817173#8 191817173#9 191817173#10 191817173#11 191817173#12 191817173#13 191817173#14 191817173#15 191817173#16 191817364#2 191817167#0 191817167#1 191774923#4 191774923#5 908960860#0 908960860#1 1033772443#4 1264709754 191774940#0 191774940#1 191774940#2 191774940#3 191774940#4 191774945#3 191774945#4 191775253#0 191775253#1 191775253#2 191774936#0 -191775236#2 -191775236#1 -191775236#0 -191775113#2"/>
    </vehicle>
    <vehicle id="21" depart="2.52" departLane="best" departPos="random" departSpeed="max">
        <route edges="-369966053#3 -362199342#9 -362199342#8 -362199342#6 -362199342#5 -362199342#4 -362199342#3 -362199342#2 -362199342#0 909581315#8 909581315#9 -370142836#1 370142840#0 -370142842#3 -370142842#2 -370142842#1 -370142842#0 1049624639 369980585#0 369980585#1 369980585#2 -369852169#1 -369852169#0 -704477363#9 -704477363#7 -704477363#6 -704477363#5 -704477363#4 -704477363#2 -704477363#1 -370042285#32 -370042285#31 -370042285#29 -370042285#28 -370042285#27 -370042285#26 -370042285#25 -370042285#24 -370042285#23 -370042285#22 -370042285#21 -369844164#8 -369844164#7 -369844164#6 -369844164#5 -369844164#3 -369844164#2 -369844164#0 191943262#19 191943262#20 -369994452 369994536#0 369994536#1 369994536#2 369994536#3 369994536#4 697400937#0 697400937#1 697400937#2 697400937#3 697400937#4 697400937#5 697400937#6 697400937#7 697400937#8 -697581576#0 910682412#0 -697581578#5 -697581578#4 -697581568#1 -697581568#0 -697581580#1 -697581580#0 -697581581#4 -697581581#2 -697581581#1 -697581581#0 -370147275#14 -370147275#13 -370147275#12 -370147275#11 722422265#0 722422265#1 722422265#2 722422265#3 722422265#4 -697693236#7 1189355834 582879071#4 -582879071#4"/>
    </vehicle>
    <vehicle id="22" depart="2.64" departLane="best" departPos="random" departSpeed="max">